data_image0
_chemical_formula_structural       N16
_chemical_formula_sum              "N16"
_cell_length_a       6.112
_cell_length_b       6.112
_cell_length_c       6.112
_cell_angle_alpha    90.0
_cell_angle_beta     90.0
_cell_angle_gamma    90.0

_space_group_name_H-M_alt    "P 1"
_space_group_IT_number       1

loop_
  _space_group_symop_operation_xyz
  'x, y, z'

loop_
  _atom_site_type_symbol
  _atom_site_label
  _atom_site_symmetry_multiplicity
  _atom_site_fract_x
  _atom_site_fract_y
  _atom_site_fract_z
  _atom_site_occupancy
  N   N1        1.0  0.05195399999999999  0.05195399999999999  0.05195399999999999  1.0000
  N   N2        1.0  0.948046  0.948046  0.948046  1.0000
  N   N3        1.0  0.551954  0.551954  0.551954  1.0000
  N   N4        1.0  0.448046  0.448046  0.448046  1.0000
  N   N5        1.0  0.0  0.339987  0.5  1.0000
  N   N6        1.0  0.0  0.160013  0.5  1.0000
  N   N7        1.0  0.0  0.8399869999999999  0.5  1.0000
  N   N8        1.0  0.0  0.660013  0.5  1.0000
  N   N9        1.0  0.5  0.0  0.339987  1.0000
  N   N10       1.0  0.5  0.0  0.160013  1.0000
  N   N11       1.0  0.5  0.0  0.8399869999999999  1.0000
  N   N12       1.0  0.5  0.0  0.660013  1.0000
  N   N13       1.0  0.339987  0.5  0.0  1.0000
  N   N14       1.0  0.160013  0.5  0.0  1.0000
  N   N15       1.0  0.8399869999999999  0.5  0.0  1.0000
  N   N16       1.0  0.660013  0.5  0.0  1.0000
